169
GENERATED BY SAMSON 2023 R1
C -25.2013 -12.0226 8.16728
C -24.997 -13.344 7.97173
C -26.2431 -13.9235 7.86561
C -26.5727 -11.8233 8.16089
N -27.225 -12.9995 7.98339
C -27.1981 -10.5069 8.38259
C -28.5403 -10.3781 8.43374
N -29.4622 -11.3798 8.28494
C -30.6677 -10.7464 8.38321
C -29.1735 -9.15625 8.611
C -30.4999 -9.39043 8.59095
C -31.8788 -11.3078 8.28312
C -32.0611 -12.73 8.01203
N -31.0754 -13.6432 7.85289
C -33.0932 -14.6333 7.66059
C -33.3064 -13.3142 7.89104
C -29.7562 -16.2802 7.51505
N -28.8343 -15.2865 7.69594
C -27.6312 -15.9234 7.59937
C -27.7995 -17.2798 7.38998
C -29.1279 -17.5037 7.32783
C -26.4232 -15.3565 7.66935
C -31.0937 -16.1327 7.46891
C -31.722 -14.8159 7.64097
H -24.4041 -11.3092 8.31253
H -24.0301 -13.8255 7.93106
H -31.255 -8.62468 8.69402
H -33.8725 -15.3729 7.53936
H -34.2757 -12.8397 7.97219
H -27.0416 -18.0431 7.27032
H -29.5573 -18.4776 7.14274
C -33.0716 -10.4838 8.44691
C -25.2259 -16.1744 7.5204
C -24.2378 -16.8525 7.38476
C -20.6543 -17.7743 6.53986
C -21.8061 -16.951 6.67324
C -21.7378 -15.5999 6.30378
H -22.5995 -14.9542 6.38945
C -20.5335 -15.0789 5.81307
H -20.4768 -14.0365 5.52739
C -19.4007 -15.8969 5.68769
H -18.4769 -15.4812 5.30662
C -19.4573 -17.248 6.04969
H -18.5813 -17.8755 5.94845
H -23.2365 -22.0044 3.95416
C -23.2242 -21.1375 4.60196
C -24.3743 -20.3435 4.72488
H -25.2671 -20.6026 4.17063
C -24.3767 -19.2172 5.55793
H -25.2723 -18.6169 5.63673
C -23.217 -18.8857 6.27386
C -22.0548 -19.6944 6.14224
C -22.0601 -20.8155 5.30975
H -21.1749 -21.4303 5.20959
C -20.8575 -19.2258 6.9639
H -19.953 -19.8627 6.85395
C -23.0342 -17.6931 7.22734
C -21.3871 -19.1345 8.39069
C -22.5434 -18.3225 8.54203
C -23.1186 -18.1651 9.81214
C -20.8197 -19.7759 9.49371
C -22.5439 -18.8116 10.914
C -21.4023 -19.6115 10.756
H -19.9389 -20.3941 9.3774
H -20.9688 -20.1051 11.6162
H -23.9987 -17.5526 9.95526
H -22.9844 -18.6927 11.8954
H -39.6784 -10.8568 11.1437
H -39.5454 -8.49843 10.385
C -38.7723 -10.4914 10.6781
C -38.6997 -9.16039 10.2504
H -36.805 -5.00283 10.7649
H -37.7482 -12.3804 10.8454
H -34.6487 -4.44547 11.858
H -38.1834 -6.60332 9.28794
C -37.6787 -11.3541 10.5089
C -35.949 -5.65299 10.6385
C -37.5257 -8.69862 9.6521
C -34.7318 -5.34049 11.2551
C -37.3085 -7.2747 9.14697
C -36.0449 -6.81069 9.86305
C -36.497 -10.8983 9.90967
C -36.4129 -9.56716 9.47683
C -33.6203 -6.1818 11.1006
H -32.6859 -5.93127 11.586
C -34.9213 -7.66573 9.6953
H -35.6639 -11.5775 9.79012
H -38.3535 -6.18111 6.75137
C -33.7098 -7.34459 10.3246
C -36.8814 -7.44669 7.69406
C -35.204 -8.89277 8.80878
C -37.5031 -6.83434 6.60395
H -32.8438 -7.98018 10.2242
C -35.7646 -8.30432 7.50258
C -37.0152 -7.0739 5.31398
H -37.4914 -6.60341 4.46362
C -35.2845 -8.53712 6.20486
C -35.9136 -7.91966 5.11594
H -34.4366 -9.18582 6.03062
H -35.5465 -8.09673 4.11332
C -34.0383 -9.77953 8.60936
C -31.9737 -17.3201 7.19688
C -32.7909 -17.3293 6.05613
H -32.8059 -16.476 5.38909
C -33.5521 -18.4552 5.73414
C -33.5397 -19.5965 6.56867
C -32.7446 -19.57 7.72585
C -31.9627 -18.4512 8.0324
H -31.3406 -18.4686 8.91892
H -28.7551 -8.168 8.72943
C -26.2959 -9.30834 8.55703
C -26.4289 -8.45484 9.66892
H -27.1846 -8.67149 10.4131
C -25.5854 -7.3429 9.83349
C -24.596 -7.08477 8.87331
C -24.443 -7.92327 7.75723
C -25.2944 -9.02811 7.60972
H -25.1823 -9.66775 6.74192
H -32.7092 -20.4357 8.37561
H -34.1332 -18.4329 4.82252
N -34.2602 -20.8212 6.24511
C -35.5383 -20.5396 5.53164
H -35.9643 -19.5751 5.8929
H -35.3631 -20.4487 4.43598
C -33.3046 -21.6718 5.47992
H -32.3386 -21.7226 6.03497
H -33.0861 -21.2215 4.48516
C -36.6399 -21.5798 5.81512
H -36.8281 -21.6248 6.90842
H -36.3482 -22.5812 5.47678
C -33.7347 -23.1334 5.29235
H -34.5864 -23.1875 4.59185
H -32.9052 -23.6807 4.79299
C -34.0506 -23.8199 6.63227
H -34.8501 -23.2621 7.16251
H -33.1428 -23.8159 7.27476
C -34.526 -25.2605 6.41187
H -35.4279 -25.2489 5.76023
H -33.7246 -25.8419 5.90514
C -34.8846 -25.9307 7.74371
H -35.6863 -25.349 8.24966
H -33.9906 -25.9555 8.40412
C -35.3813 -27.3571 7.52595
H -36.2895 -27.3555 6.8858
H -34.5931 -27.9708 7.04039
H -35.6382 -27.8155 8.50425
C -37.9332 -21.2198 5.06504
H -38.3434 -20.2617 5.45204
H -37.6891 -21.0827 3.98826
C -38.9999 -22.3261 5.13319
H -39.865 -22.0029 4.51323
H -38.5851 -23.2566 4.68561
C -39.4954 -22.6205 6.55458
H -39.921 -21.6958 7.00034
H -38.6568 -22.9758 7.18912
C -40.5691 -23.7061 6.53559
H -41.4381 -23.3808 5.92457
H -40.158 -24.6469 6.10987
H -40.9164 -23.9073 7.57052
H -23.9473 -6.22748 9.0047
C -25.7143 -6.42298 11.0227
C -23.3862 -7.66436 6.71198
F -23.9923 -7.46247 5.48532
F -22.6237 -6.54969 7.0161
F -22.5474 -8.76072 6.62477
F -25.9336 -5.12981 10.5836
F -24.5432 -6.45648 11.7576
F -26.7638 -6.79081 11.8471
Zn -29.1498 -13.328 7.95856
