165
GENERATED BY SAMSON 2023 R1
C -25.2042 -11.998 8.10156
C -25.0003 -13.32 7.91618
C -26.2462 -13.9016 7.82615
C -26.576 -11.7993 8.10444
N -27.2283 -12.9779 7.94372
C -27.201 -10.4813 8.32079
C -28.5431 -10.355 8.38533
N -29.4645 -11.3602 8.25515
C -30.6706 -10.73 8.36707
C -29.1771 -9.13367 8.56178
C -30.5037 -9.37169 8.56138
C -31.8814 -11.2968 8.29177
C -32.0633 -12.7218 8.0373
N -31.0774 -13.633 7.87005
C -33.0948 -14.6313 7.72016
C -33.3086 -13.3113 7.94292
C -29.7564 -16.27 7.53842
N -28.8349 -15.2721 7.69782
C -27.6312 -15.9072 7.59474
C -27.7985 -17.2661 7.40139
C -29.1274 -17.4938 7.35626
C -26.4243 -15.3364 7.64604
C -31.0947 -16.1254 7.50738
C -31.7235 -14.8094 7.67875
H -24.4041 -11.2861 8.23438
H -24.033 -13.8002 7.87231
H -31.2601 -8.60772 8.66985
H -33.8733 -15.3749 7.61868
H -34.2782 -12.8396 8.03655
H -27.0395 -18.0285 7.28141
H -29.5573 -18.4704 7.18689
C -33.0754 -10.4777 8.46794
C -25.2248 -16.1507 7.49598
C -24.2334 -16.8243 7.36314
C -20.6483 -17.7631 6.53369
C -21.7956 -16.9321 6.6619
C -21.7163 -15.5816 6.2932
H -22.5739 -14.9302 6.37532
C -20.506 -15.0686 5.80827
H -20.4405 -14.0265 5.52329
C -19.3781 -15.8942 5.68793
H -18.4496 -15.4847 5.31149
C -19.4455 -17.2449 6.04928
H -18.5731 -17.8783 5.95231
H -23.2467 -21.9752 3.93627
C -23.2315 -21.109 4.58477
C -24.3767 -20.3073 4.70274
H -25.2687 -20.5597 4.14416
C -24.3752 -19.1816 5.53632
H -25.2672 -18.5752 5.61101
C -23.2165 -18.8584 6.25777
C -22.0593 -19.6744 6.13122
C -22.0683 -20.7951 5.29813
H -21.1868 -21.4156 5.20143
C -20.8624 -19.2131 6.95759
H -19.9616 -19.8559 6.85165
C -23.0305 -17.6668 7.2113
C -21.3962 -19.1164 8.38246
C -22.5477 -18.2967 8.52869
C -23.1243 -18.1312 9.79718
C -20.8354 -19.7579 9.48875
C -22.5561 -18.7777 10.9023
C -21.4196 -19.5857 10.7493
H -19.958 -20.3817 9.37642
H -20.991 -20.079 11.612
H -24.0002 -17.5119 9.9367
H -22.9976 -18.6522 11.8825
H -39.6913 -10.7788 11.2004
H -39.535 -8.42868 10.4216
C -38.7825 -10.4274 10.7291
C -38.6967 -9.10093 10.2902
H -36.7561 -4.95965 10.7634
H -37.7789 -12.326 10.9091
H -34.5906 -4.41797 11.8467
H -38.1567 -6.55796 9.3042
C -37.6987 -11.3034 10.5638
C -35.9077 -5.62022 10.6398
C -37.5197 -8.65706 9.68464
C -34.6854 -5.31657 11.251
C -37.2895 -7.23974 9.16611
C -36.0186 -6.78289 9.87383
C -36.5136 -10.8655 9.95715
C -36.4165 -9.53918 9.51317
C -33.584 -6.17164 11.1008
H -32.6455 -5.92833 11.5822
C -34.9051 -7.65131 9.71003
H -35.6882 -11.5546 9.84024
H -38.3344 -6.1603 6.76369
C -33.6885 -7.3392 10.3342
C -36.8705 -7.4302 7.7132
C -35.2033 -8.88259 8.83498
C -37.4915 -6.82373 6.61938
H -32.8299 -7.98564 10.2374
C -35.7638 -8.30144 7.52556
C -37.0132 -7.08329 5.32961
H -37.4891 -6.61788 4.47634
C -35.2937 -8.55462 6.22794
C -35.922 -7.94322 5.1354
H -34.4542 -9.21501 6.05634
H -35.5626 -8.13641 4.13298
C -34.0431 -9.77635 8.63625
C -31.9765 -17.3146 7.25031
C -32.8004 -17.3272 6.11481
H -32.8188 -16.476 5.44512
C -33.5626 -18.4538 5.79949
C -33.5457 -19.594 6.63598
C -32.7451 -19.5626 7.79042
C -31.9611 -18.4426 8.08967
H -31.3337 -18.4571 8.97242
H -28.7583 -8.14412 8.66767
C -26.2943 -9.2845 8.48882
C -26.4218 -8.42656 9.59817
H -27.1762 -8.61203 10.3525
C -25.564 -7.3359 9.76316
C -24.5543 -7.07226 8.82304
C -24.4252 -7.92143 7.71187
C -25.2828 -9.01245 7.54823
H -25.1595 -9.64408 6.67709
H -23.6585 -7.74456 6.96852
H -25.6872 -6.70272 10.6322
H -32.705 -20.4265 8.44235
H -34.1459 -18.4315 4.88963
N -34.2618 -20.8234 6.31463
C -35.5251 -20.5496 5.5706
H -35.9702 -19.5939 5.93218
H -35.3211 -20.4454 4.48115
C -33.2865 -21.68 5.57963
H -32.339 -21.7339 6.16516
H -33.035 -21.2313 4.59187
C -36.6255 -21.6033 5.80899
H -36.8453 -21.6683 6.89545
H -36.3167 -22.5955 5.46264
C -33.7108 -23.1411 5.37748
H -34.5321 -23.1934 4.64181
H -32.8642 -23.6906 4.91059
C -34.0811 -23.8272 6.70369
H -34.8942 -23.264 7.2061
H -33.1982 -23.8327 7.37996
C -34.5634 -25.2618 6.46055
H -35.438 -25.2377 5.77293
H -33.7491 -25.8515 5.98489
C -34.9859 -25.9307 7.774
H -35.8001 -25.3395 8.24804
H -34.1208 -25.9699 8.47099
C -35.4936 -27.349 7.52993
H -36.3741 -27.3318 6.85223
H -34.6948 -27.9724 7.07515
H -35.7982 -27.8069 8.49462
C -37.9017 -21.2475 5.02787
H -38.342 -20.3077 5.42648
H -37.6278 -21.0777 3.96297
C -38.9459 -22.3777 5.03115
H -39.8002 -22.0548 4.39632
H -38.4969 -23.284 4.56684
C -39.4736 -22.7312 6.42711
H -39.9362 -21.8331 6.88981
H -38.644 -23.0857 7.07395
C -40.516 -23.844 6.34116
H -41.3757 -23.5222 5.71534
H -40.0669 -24.7589 5.89752
H -40.8872 -24.089 7.35817
N -23.6642 -5.95436 8.99806
O -22.7218 -5.71589 8.13253
O -23.7791 -5.17154 10.0316
Zn -29.1519 -13.3105 7.93904
