157
GENERATED BY SAMSON 2023 R1
C -25.1602 -11.7172 7.76943
C -24.9379 -13.0409 7.61663
C -26.1737 -13.6509 7.62438
C -26.5328 -11.549 7.85345
N -27.1662 -12.747 7.78976
C -27.1729 -10.2344 8.03282
C -28.5082 -10.1331 8.18995
N -29.4096 -11.1642 8.18641
C -30.6146 -10.5568 8.38631
C -29.1583 -8.91762 8.34881
C -30.4707 -9.18529 8.48224
C -31.806 -11.1559 8.47716
C -31.9678 -12.5998 8.3499
N -30.9868 -13.5008 8.10466
C -32.9801 -14.5383 8.27742
C -33.194 -13.216 8.46436
C -29.649 -16.1076 7.60797
N -28.7459 -15.0774 7.65658
C -27.5341 -15.6805 7.47197
C -27.678 -17.0393 7.28086
C -28.9954 -17.306 7.34157
C -26.3359 -15.088 7.46129
C -30.992 -16.011 7.76223
C -31.6245 -14.6979 8.02839
H -24.3744 -10.9779 7.8153
H -23.9661 -13.5012 7.5139
H -31.2344 -8.43334 8.62392
H -33.7643 -15.2777 8.32814
H -34.154 -12.7596 8.66711
H -26.9107 -17.7812 7.09807
H -29.3791 -18.3024 7.19515
C -33.0002 -10.346 8.69085
C -25.1311 -15.8914 7.28706
C -24.1459 -16.5809 7.19105
C -20.5345 -17.6146 6.63636
C -21.6681 -16.7568 6.66958
C -21.53 -15.4126 6.29601
H -22.376 -14.7419 6.30712
C -20.2752 -14.9317 5.90026
H -20.1648 -13.8943 5.6122
C -19.1608 -15.7835 5.87371
H -18.1973 -15.3985 5.56589
C -19.2867 -17.1285 6.24068
H -18.4243 -17.7821 6.21649
H -23.0394 -21.8096 3.91104
C -23.0501 -20.9328 4.54544
C -24.1825 -20.1048 4.57059
H -25.0388 -20.348 3.95493
C -24.2144 -18.9657 5.38549
H -25.0962 -18.3396 5.39009
C -23.102 -18.6557 6.18133
C -21.9576 -19.4992 6.14946
C -21.9334 -20.6328 5.33461
H -21.0621 -21.2746 5.311
C -20.8136 -19.0545 7.05632
H -19.9227 -19.7188 7.02412
C -22.9575 -17.4557 7.13123
C -21.45 -18.931 8.43596
C -22.59 -18.0841 8.4877
C -23.2586 -17.8968 9.70756
C -20.9906 -19.5765 9.58603
C -22.7919 -18.5476 10.857
C -21.6656 -19.3817 10.7968
H -20.1223 -20.2214 9.54519
H -21.3163 -19.8784 11.6928
H -24.129 -17.2583 9.77628
H -23.3049 -18.4058 11.7994
H -39.6468 -10.3453 11.4075
H -39.4382 -8.05788 10.4697
C -38.7269 -10.0438 10.9235
C -38.6116 -8.75274 10.3949
H -36.5902 -4.62071 10.5907
H -37.7611 -11.9435 11.2455
H -34.4199 -4.04023 11.6436
H -38.013 -6.29441 9.24109
C -37.6584 -10.9489 10.8314
C -35.754 -5.30448 10.5222
C -37.4204 -8.37356 9.77322
C -34.5288 -4.97892 11.116
C -37.1582 -7.00054 9.15951
C -35.8834 -6.51833 9.8437
C -36.4596 -10.5759 10.2091
C -36.3332 -9.28576 9.67544
C -33.4423 -5.86236 11.0348
H -32.5014 -5.60024 11.501
C -34.7854 -7.41689 9.75131
H -35.6463 -11.2861 10.149
H -38.1587 -6.06837 6.67708
C -33.565 -7.08156 10.356
C -36.7305 -7.29926 7.7275
C -35.1024 -8.70191 8.96553
C -37.328 -6.75644 6.5879
H -32.7169 -7.74853 10.3093
C -35.6393 -8.20216 7.61233
C -36.8412 -7.11133 5.32424
H -37.2986 -6.69531 4.43593
C -35.1604 -8.55063 6.33986
C -35.765 -8.00252 5.20128
H -34.3316 -9.23579 6.22227
H -35.3984 -8.26893 4.21839
C -33.9596 -9.62918 8.83713
C -31.8797 -17.2405 7.66915
C -33.0468 -17.2223 6.88104
H -33.3172 -16.3293 6.33173
C -33.8783 -18.342 6.76868
C -33.5168 -19.5291 7.44081
H -34.1377 -20.4061 7.3557
C -32.3482 -19.5818 8.22755
C -31.5621 -18.433 8.34958
H -30.6849 -18.4841 8.98188
H -28.7623 -7.91362 8.36649
C -26.2929 -9.00685 8.04318
C -26.3561 -8.07028 9.09272
H -27.0384 -8.24335 9.91512
C -25.5369 -6.92828 9.09441
C -24.6403 -6.72587 8.03465
C -24.5569 -7.64851 6.97935
C -25.3842 -8.78059 6.99362
H -25.328 -9.48466 6.17145
C -23.603 -7.44998 5.82752
C -25.5941 -5.91842 10.2143
F -22.827 -6.31545 5.99177
F -22.7643 -8.54565 5.72954
F -24.3218 -7.3269 4.65246
F -25.7918 -4.65384 9.68909
F -24.3979 -5.93619 10.9074
F -26.624 -6.18981 11.0987
H -24.0095 -5.84558 8.04036
O -31.9073 -20.7403 8.90235
O -35.0359 -18.2094 5.97066
C -35.962 -19.2987 5.9385
H -35.4983 -20.1711 5.42694
H -36.2601 -19.5754 6.97488
C -37.2155 -18.8748 5.1758
H -37.6644 -17.9925 5.68317
H -36.9314 -18.5858 4.14022
C -38.2417 -20.0135 5.12988
H -38.5239 -20.3046 6.16546
H -37.7982 -20.8963 4.61974
C -39.5013 -19.5905 4.37996
H -40.2248 -20.4328 4.3636
H -39.9773 -18.7229 4.88482
H -39.2527 -19.3136 3.33338
C -32.4623 -21.9991 8.50677
H -33.4553 -22.1393 8.98692
H -32.5637 -22.0495 7.39885
C -31.5135 -23.1194 8.93011
H -31.3914 -23.1003 10.0351
H -30.5216 -22.9426 8.45806
C -32.0438 -24.4892 8.48898
H -33.0306 -24.6796 8.96423
H -32.1714 -24.5022 7.38417
C -31.0787 -25.605 8.87888
H -30.9441 -25.6324 9.98092
H -31.4854 -26.5826 8.54406
H -30.0916 -25.4473 8.3937
Zn -29.0799 -13.1206 7.91541
